/*--------------------------------*- C++ -*----------------------------------*\
  =========                 |
  \\      /  F ield         | OpenFOAM: The Open Source CFD Toolbox
   \\    /   O peration     | Website:  https://openfoam.org
    \\  /    A nd           | Version:  7
     \\/     M anipulation  |
\*---------------------------------------------------------------------------*/
FoamFile
{
    version     2.0;
    format      ascii;
    class       polyBoundaryMesh;
    location    "constant/polyMesh";
    object      boundary;
}
// * * * * * * * * * * * * * * * * * * * * * * * * * * * * * * * * * * * * * //

8
(
    front
    {
        type            empty;
        inGroups        List<word> 1(empty);
        nFaces          16178;
        startFace       31936;
    }
    back
    {
        type            empty;
        inGroups        List<word> 1(empty);
        nFaces          16178;
        startFace       48114;
    }
    inlet
    {
        type            patch;
        nFaces          75;
        startFace       64292;
    }
    outlet
    {
        type            patch;
        nFaces          77;
        startFace       64367;
    }
    top
    {
        type            wall;
        inGroups        List<word> 1(wall);
        nFaces          210;
        startFace       64444;
    }
    bottom
    {
        type            wall;
        inGroups        List<word> 1(wall);
        nFaces          210;
        startFace       64654;
    }
    flap
    {
        type            wall;
        inGroups        List<word> 1(wall);
        nFaces          167;
        startFace       64864;
    }
    squareblock
    {
        type            wall;
        inGroups        List<word> 1(wall);
        nFaces          101;
        startFace       65031;
    }
)

// ************************************************************************* //
