/*--------------------------------*- C++ -*----------------------------------*\
  =========                 |
  \\      /  F ield         | OpenFOAM: The Open Source CFD Toolbox
   \\    /   O peration     | Website:  https://openfoam.org
    \\  /    A nd           | Version:  7
     \\/     M anipulation  |
\*---------------------------------------------------------------------------*/
FoamFile
{
    version     2.0;
    format      ascii;
    class       polyBoundaryMesh;
    location    "constant/polyMesh";
    object      boundary;
}
// * * * * * * * * * * * * * * * * * * * * * * * * * * * * * * * * * * * * * //

8
(
    front
    {
        type            empty;
        inGroups        List<word> 1(empty);
        nFaces          11720;
        startFace       23071;
    }
    back
    {
        type            empty;
        inGroups        List<word> 1(empty);
        nFaces          11720;
        startFace       34791;
    }
    inlet
    {
        type            patch;
        nFaces          60;
        startFace       46511;
    }
    outlet
    {
        type            patch;
        nFaces          61;
        startFace       46571;
    }
    top
    {
        type            wall;
        inGroups        List<word> 1(wall);
        nFaces          190;
        startFace       46632;
    }
    bottom
    {
        type            wall;
        inGroups        List<word> 1(wall);
        nFaces          190;
        startFace       46822;
    }
    flap
    {
        type            wall;
        inGroups        List<word> 1(wall);
        nFaces          157;
        startFace       47012;
    }
    squareblock
    {
        type            wall;
        inGroups        List<word> 1(wall);
        nFaces          80;
        startFace       47169;
    }
)

// ************************************************************************* //
