/*--------------------------------*- C++ -*----------------------------------*\
  =========                 |
  \\      /  F ield         | OpenFOAM: The Open Source CFD Toolbox
   \\    /   O peration     | Website:  https://openfoam.org
    \\  /    A nd           | Version:  7
     \\/     M anipulation  |
\*---------------------------------------------------------------------------*/
FoamFile
{
    version     2.0;
    format      ascii;
    class       polyBoundaryMesh;
    location    "constant/polyMesh";
    object      boundary;
}
// * * * * * * * * * * * * * * * * * * * * * * * * * * * * * * * * * * * * * //

8
(
    front
    {
        type            empty;
        inGroups        List<word> 1(empty);
        nFaces          64010;
        startFace       127182;
    }
    back
    {
        type            empty;
        inGroups        List<word> 1(empty);
        nFaces          64010;
        startFace       191192;
    }
    inlet
    {
        type            patch;
        nFaces          150;
        startFace       255202;
    }
    outlet
    {
        type            patch;
        nFaces          153;
        startFace       255352;
    }
    top
    {
        type            wall;
        inGroups        List<word> 1(wall);
        nFaces          420;
        startFace       255505;
    }
    bottom
    {
        type            wall;
        inGroups        List<word> 1(wall);
        nFaces          420;
        startFace       255925;
    }
    flap
    {
        type            wall;
        inGroups        List<word> 1(wall);
        nFaces          333;
        startFace       256345;
    }
    squareblock
    {
        type            wall;
        inGroups        List<word> 1(wall);
        nFaces          200;
        startFace       256678;
    }
)

// ************************************************************************* //
