/*--------------------------------*- C++ -*----------------------------------*\
  =========                 |
  \\      /  F ield         | OpenFOAM: The Open Source CFD Toolbox
   \\    /   O peration     | Website:  https://openfoam.org
    \\  /    A nd           | Version:  7
     \\/     M anipulation  |
\*---------------------------------------------------------------------------*/
FoamFile
{
    version     2.0;
    format      ascii;
    class       polyBoundaryMesh;
    location    "constant/polyMesh";
    object      boundary;
}
// * * * * * * * * * * * * * * * * * * * * * * * * * * * * * * * * * * * * * //

8
(
    front
    {
        type            empty;
        inGroups        List<word> 1(empty);
        nFaces          20085;
        startFace       39623;
    }
    back
    {
        type            empty;
        inGroups        List<word> 1(empty);
        nFaces          20085;
        startFace       59708;
    }
    inlet
    {
        type            patch;
        nFaces          59;
        startFace       79793;
    }
    outlet
    {
        type            patch;
        nFaces          77;
        startFace       79852;
    }
    top
    {
        type            wall;
        inGroups        List<word> 1(wall);
        nFaces          270;
        startFace       79929;
    }
    bottom
    {
        type            wall;
        inGroups        List<word> 1(wall);
        nFaces          270;
        startFace       80199;
    }
    flap
    {
        type            wall;
        inGroups        List<word> 1(wall);
        nFaces          303;
        startFace       80469;
    }
    squareblock
    {
        type            wall;
        inGroups        List<word> 1(wall);
        nFaces          115;
        startFace       80772;
    }
)

// ************************************************************************* //
