/*--------------------------------*- C++ -*----------------------------------*\
  =========                 |
  \\      /  F ield         | OpenFOAM: The Open Source CFD Toolbox
   \\    /   O peration     | Website:  https://openfoam.org
    \\  /    A nd           | Version:  7
     \\/     M anipulation  |
\*---------------------------------------------------------------------------*/
FoamFile
{
    version     2.0;
    format      ascii;
    class       polyBoundaryMesh;
    location    "constant/polyMesh";
    object      boundary;
}
// * * * * * * * * * * * * * * * * * * * * * * * * * * * * * * * * * * * * * //

8
(
    front
    {
        type            empty;
        inGroups        List<word> 1(empty);
        nFaces          38250;
        startFace       75792;
    }
    back
    {
        type            empty;
        inGroups        List<word> 1(empty);
        nFaces          38250;
        startFace       114042;
    }
    inlet
    {
        type            patch;
        nFaces          100;
        startFace       152292;
    }
    outlet
    {
        type            patch;
        nFaces          103;
        startFace       152392;
    }
    top
    {
        type            wall;
        inGroups        List<word> 1(wall);
        nFaces          370;
        startFace       152495;
    }
    bottom
    {
        type            wall;
        inGroups        List<word> 1(wall);
        nFaces          370;
        startFace       152865;
    }
    flap
    {
        type            wall;
        inGroups        List<word> 1(wall);
        nFaces          313;
        startFace       153235;
    }
    squareblock
    {
        type            wall;
        inGroups        List<word> 1(wall);
        nFaces          160;
        startFace       153548;
    }
)

// ************************************************************************* //
