/*--------------------------------*- C++ -*----------------------------------*\
  =========                 |
  \\      /  F ield         | OpenFOAM: The Open Source CFD Toolbox
   \\    /   O peration     | Website:  https://openfoam.org
    \\  /    A nd           | Version:  7
     \\/     M anipulation  |
\*---------------------------------------------------------------------------*/
FoamFile
{
    version     2.0;
    format      ascii;
    class       polyBoundaryMesh;
    location    "constant/polyMesh";
    object      boundary;
}
// * * * * * * * * * * * * * * * * * * * * * * * * * * * * * * * * * * * * * //

8
(
    front
    {
        type            empty;
        inGroups        List<word> 1(empty);
        nFaces          22185;
        startFace       43748;
    }
    back
    {
        type            empty;
        inGroups        List<word> 1(empty);
        nFaces          22185;
        startFace       65933;
    }
    inlet
    {
        type            patch;
        nFaces          84;
        startFace       88118;
    }
    outlet
    {
        type            patch;
        nFaces          77;
        startFace       88202;
    }
    top
    {
        type            wall;
        inGroups        List<word> 1(wall);
        nFaces          295;
        startFace       88279;
    }
    bottom
    {
        type            wall;
        inGroups        List<word> 1(wall);
        nFaces          295;
        startFace       88574;
    }
    flap
    {
        type            wall;
        inGroups        List<word> 1(wall);
        nFaces          303;
        startFace       88869;
    }
    squareblock
    {
        type            wall;
        inGroups        List<word> 1(wall);
        nFaces          190;
        startFace       89172;
    }
)

// ************************************************************************* //
