/*--------------------------------*- C++ -*----------------------------------*\
| =========                 |                                                 |
| \\      /  F ield         | OpenFOAM: The Open Source CFD Toolbox           |
|  \\    /   O peration     | Version:  2.2.2                                 |
|   \\  /    A nd           | Web:      www.OpenFOAM.org                      |
|    \\/     M anipulation  |                                                 |
\*---------------------------------------------------------------------------*/
FoamFile
{
    version     2.0;
    format      ascii;
    class       dictionary;
    object      fvSolution;
}
// * * * * * * * * * * * * * * * * * * * * * * * * * * * * * * * * * * * * * //

solvers
{
    p
    {
        solver           GAMG;
        tolerance        1e-6;
        relTol           0.1;

        smoother         GaussSeidel;
        nPreSweeps       0;
        nPostSweeps      2;

        cacheAgglomeration true;

        nCellsInCoarsestLevel 50;//10;
        agglomerator     faceAreaPair;
        mergeLevels      1;
    }

    pFinal
    {
        solver           GAMG;
        tolerance        1e-6;
        relTol           0;

        smoother         GaussSeidel;
        nPreSweeps       0;
        nPostSweeps      2;

        cacheAgglomeration true;

        nCellsInCoarsestLevel 50;//10;
        agglomerator     faceAreaPair;
        mergeLevels      1;
    }

    pcorr
    {
        solver           GAMG;
        tolerance        1e-5;
        relTol           1e-4;
        smoother         GaussSeidel;
    }

    pcorrFinal
    {
        $pcorr;
        relTol          0;
    }

    phi
    {
        $p;
    }

    U
    {
        solver           PBiCGStab;
        preconditioner   DILU;
        tolerance        1e-08;
        relTol           0;
    }

    UFinal
    {
        solver           PBiCGStab;
        preconditioner   DILU;
        tolerance        1e-08;
        relTol           0;
    }

    k
    {
        solver           PBiCGStab;
        preconditioner   DILU;
        tolerance        1e-07;
        relTol           0;
    }

    kFinal
    {
        $k;
        relTol          0;
    }

    B
    {
        solver           PBiCGStab;
        preconditioner   DILU;
        tolerance        1e-07;
        relTol           0;
    }

    BFinal
    {
        $B;
        relTol          0;
    }


    nuTilda
    {
        solver           PBiCGStab;
        preconditioner   DILU;
        tolerance        1e-07;
        relTol           0;
    }

    nuTildaFinal
    {
        $nuTilda;
        relTol          0;
    }

    cellDisplacement
    {
        /*
        solver          PCG;
        preconditioner  DIC;
        tolerance       1e-08;
        relTol          0;
        */

        solver          smoothSolver;
        smoother        symGaussSeidel;
        tolerance       1e-8;
        relTol          1e-6;
    }

    cellDisplacementFinal
    {
        $U;
        relTol          0;
    }
}

PISO
{
    nCorrectors     2;
    nNonOrthogonalCorrectors 1;
}

PIMPLE
{
    nCorrectors     2;
    nNonOrthogonalCorrectors 1;
}

relaxationFactors
{
    "U.*"               1;
    "nuTilda.*"         1;
}


// ************************************************************************* //
