FoamFile
{
    version 2.0;
    format ascii;
    class dictionary;
    location system;
    object decomposeParDict;
}
// * * * * * * * * * * * * * * * * * * * * * * * * * * * * * * * * * * * * * //

    numberOfSubdomains 4;

    method hierarchical;
    hierarchicalCoeffs
    {
        n (2 2 1);
        delta 0.001; //Cell Skew Factor
        order xyz;  //Order of decomposition
    }

    distributed false;
    roots
    (
    );


