/*--------------------------------*- C++ -*----------------------------------*\
  =========                 |
  \\      /  F ield         | OpenFOAM: The Open Source CFD Toolbox
   \\    /   O peration     | Website:  https://openfoam.org
    \\  /    A nd           | Version:  7
     \\/     M anipulation  |
\*---------------------------------------------------------------------------*/
FoamFile
{
    version     2.0;
    format      ascii;
    class       dictionary;
    location    "system";
    object      controlDict;
}
// * * * * * * * * * * * * * * * * * * * * * * * * * * * * * * * * * * * * * //

application         pimpleFoam;    // OpenFOAM v1806, OpenFOAM 6, or newer
// application         pimpleDyMFoam; // OpenFOAM v1712, OpenFOAM 5.x, or older

startFrom           startTime;

startTime           0;

stopAt              endTime;

endTime             2; //25

deltaT              0.005;//0.005

writeControl        adjustableRunTime;

writeInterval       0.01;//0.02

purgeWrite          0;

writeFormat         ascii;

writePrecision      10;

writeCompression    off;

timeFormat          general;

timePrecision       12;

adjustTimeStep     yes;

maxCo              0.5;

maxDeltaT          0.01;


functions
{

    KratosOpenfoamAdapterFunctionObject1
    {
        type KratosOpenfoamAdapterFunctionObject;
        libs ("libKratosOpenfoamAdapterFunctionObjectFunctionObjects.so");

        participant Fluid;

        interfaces
        {
            Interface1
            {
                mesh        Fluid-Mesh-Nodes;
                patches     (flap);
                locations   faceNodes;
                readData    (Displacement0);
                writeData   ();
            }

            Interface2
            {
                mesh        Fluid-Mesh-Faces;
                patches     (flap);
                locations   faceCenters;
                readData    ();
                writeData   (Force0);
            }
        }

        Parameters
        {
            rho rho [1 -3 0 0 0 0 0] 1000;
        }
    }

}


// ************************************************************************* //
