/*--------------------------------*- C++ -*----------------------------------*\
  =========                 |
  \\      /  F ield         | OpenFOAM: The Open Source CFD Toolbox
   \\    /   O peration     | Website:  https://openfoam.org
    \\  /    A nd           | Version:  7
     \\/     M anipulation  |
\*---------------------------------------------------------------------------*/
FoamFile
{
    version     2.0;
    format      ascii;
    class       dictionary;
    location    "system";
    object      controlDict;
}
// * * * * * * * * * * * * * * * * * * * * * * * * * * * * * * * * * * * * * //

application         pimpleFoam;    // OpenFOAM v1806, OpenFOAM 6, or newer
// application         pimpleDyMFoam; // OpenFOAM v1712, OpenFOAM 5.x, or older

startFrom           startTime;

startTime           0;

stopAt              endTime;

endTime             2; //25

deltaT              0.0001;//0.001

writeControl        adjustableRunTime;

writeInterval       0.001;//0.02

purgeWrite          0;

writeFormat         ascii;

writePrecision      12;

writeCompression    off;

timeFormat          general;

timePrecision       12;

//adjustTimeStep     yes;

//maxCo              0.5;

//maxDeltaT          0.01;


functions
{

    KratosOpenfoamAdapterFunctionObject1
    {
        type KratosOpenfoamAdapterFunctionObject;
        libs ("libKratosOpenfoamAdapterFunctionObjectFunctionObjects.so");

        participant Fluid;

        interfaces
        {
            Interface1
            {
                mesh        Fluid-Mesh-Nodes;
                patches     (flap);
                locations   faceNodes;
                readData    (Displacement0);
                writeData   ();
            }

            Interface2
            {
                mesh        Fluid-Mesh-Faces;
                patches     (flap);
                locations   faceCenters;
                readData    ();
                writeData   (Force0);
            }
        }

        Parameters
        {
            rho rho [1 -3 0 0 0 0 0] 0.00118;
            nu nu [0 2 -1 0 0 0 0 ] 0.1542;

        }
    }

    Co1
    {
        type                CourantNo;
        libs                ("libfieldFunctionObjects.so");
        executeControl      timeStep;
        executeInterval     2;
        writeControl        writeTime;
    }

    /*forces
    {
        type                forces;
        libs                ( "libforces.so" );
        patches             (squareblock flap);
        rho                 rhoInf;
        log                 true;
        rhoInf              1000;
        CofR                (0 0 0);
    }*/

    //- To see the residual plots
    //foamMonitor -l ./postProcessing/residuals/0/residuals.dat
    #includeFunc residuals

}


// ************************************************************************* //
