FoamFile
{
    version     2.0;
    format      ascii;
    class       dictionary;
    location    "system";
    object      fvSchemes;
}
// * * * * * * * * * * * * * * * * * * * * * * * * * * * * * * * * * * * * * //

ddtSchemes
    {
        default backward;
        //default Euler;
    }

    gradSchemes
    {
        default cellLimited Gauss linear 1;
    }

    divSchemes
    {
        default         none;
    	div(phi,U)      Gauss linearUpwind grad(U);
        div((nuEff*dev2(T(grad(U))))) Gauss linear;
        //div(phi,U)      Gauss upwind;
        //div((nuEff*dev2(T(grad(U))))) Gauss linear;
    }

    interpolationSchemes
    {
        default linear;
    }

    laplacianSchemes
    {
        default Gauss linear corrected;
    }

    snGradSchemes
    {
        default corrected;
    }

    /*
    snGradSchemes
    {
        //default corrected;
        default limited corrected 0.5;
    }

    laplacianSchemes
    {
        //default Gauss linear corrected;
        default Gauss linear limited corrected 0.5;
    }

    wallDist
    {
        method meshWave;
    }

    fluxRequired
    {
        default no;
        p ;
        Phi ;
    }*/
