/*--------------------------------*- C++ -*----------------------------------*\
  =========                 |
  \\      /  F ield         | OpenFOAM: The Open Source CFD Toolbox
   \\    /   O peration     | Website:  https://openfoam.org
    \\  /    A nd           | Version:  7
     \\/     M anipulation  |
\*---------------------------------------------------------------------------*/
FoamFile
{
    version     2.0;
    format      ascii;
    class       polyBoundaryMesh;
    location    "constant/polyMesh";
    object      boundary;
}
// * * * * * * * * * * * * * * * * * * * * * * * * * * * * * * * * * * * * * //

9
(
    front
    {
        type            empty;
        inGroups        List<word> 1(empty);
        nFaces          7540;
        startFace       14892;
    }
    back
    {
        type            empty;
        inGroups        List<word> 1(empty);
        nFaces          7540;
        startFace       22432;
    }
    inlet
    {
        type            patch;
        nFaces          0;
        startFace       29972;
    }
    outlet
    {
        type            patch;
        nFaces          81;
        startFace       29972;
    }
    top
    {
        type            wall;
        inGroups        List<word> 1(wall);
        nFaces          93;
        startFace       30053;
    }
    bottom
    {
        type            wall;
        inGroups        List<word> 1(wall);
        nFaces          94;
        startFace       30146;
    }
    flap
    {
        type            wall;
        inGroups        List<word> 1(wall);
        nFaces          27;
        startFace       30240;
    }
    squareblock
    {
        type            wall;
        inGroups        List<word> 1(wall);
        nFaces          0;
        startFace       30267;
    }
    procBoundary1to0
    {
        type            processor;
        inGroups        List<word> 1(processor);
        nFaces          81;
        startFace       30267;
        matchTolerance  0.0001;
        transform       unknown;
        myProcNo        1;
        neighbProcNo    0;
    }
)

// ************************************************************************* //
