/*--------------------------------*- C++ -*----------------------------------*\
  =========                 |
  \\      /  F ield         | OpenFOAM: The Open Source CFD Toolbox
   \\    /   O peration     | Website:  https://openfoam.org
    \\  /    A nd           | Version:  7
     \\/     M anipulation  |
\*---------------------------------------------------------------------------*/
FoamFile
{
    version     2.0;
    format      ascii;
    class       polyBoundaryMesh;
    location    "constant/polyMesh";
    object      boundary;
}
// * * * * * * * * * * * * * * * * * * * * * * * * * * * * * * * * * * * * * //

9
(
    front
    {
        type            empty;
        inGroups        List<word> 1(empty);
        nFaces          7540;
        startFace       14796;
    }
    back
    {
        type            empty;
        inGroups        List<word> 1(empty);
        nFaces          7540;
        startFace       22336;
    }
    inlet
    {
        type            patch;
        nFaces          60;
        startFace       29876;
    }
    outlet
    {
        type            patch;
        nFaces          0;
        startFace       29936;
    }
    top
    {
        type            wall;
        inGroups        List<word> 1(wall);
        nFaces          97;
        startFace       29936;
    }
    bottom
    {
        type            wall;
        inGroups        List<word> 1(wall);
        nFaces          96;
        startFace       30033;
    }
    flap
    {
        type            wall;
        inGroups        List<word> 1(wall);
        nFaces          134;
        startFace       30129;
    }
    squareblock
    {
        type            wall;
        inGroups        List<word> 1(wall);
        nFaces          100;
        startFace       30263;
    }
    procBoundary0to1
    {
        type            processor;
        inGroups        List<word> 1(processor);
        nFaces          81;
        startFace       30363;
        matchTolerance  0.0001;
        transform       unknown;
        myProcNo        0;
        neighbProcNo    1;
    }
)

// ************************************************************************* //
